Circuit: * C:\ITMO\circuit_design_labs\Lab4\code\test.asc

Warning: Multiple definitions of model "aons66402" Type: Vdmos1
WARNING: Node X1:X1:N004 is floating.
WARNING: Node X1:X1:N008 is floating.
WARNING: Node X1:X1:N011 is floating.
WARNING: Node X1:X1:N002 is floating.
WARNING: Node X1:X1:N003 is floating.
WARNING: Node X1:X1:N007 is floating.
WARNING: Node X1:X1:N010 is floating.
WARNING: Node X1:X1:N005 is floating.
WARNING: Node X1:X2:N004 is floating.
WARNING: Node X1:X2:N008 is floating.
WARNING: Node X1:X2:N011 is floating.
WARNING: Node X1:X2:N002 is floating.
WARNING: Node X1:X2:N003 is floating.
WARNING: Node X1:X2:N007 is floating.
WARNING: Node X1:X2:N010 is floating.
WARNING: Node X1:X2:N005 is floating.
WARNING: Node X1:X3:N004 is floating.
WARNING: Node X1:X3:N008 is floating.
WARNING: Node X1:X3:N011 is floating.
WARNING: Node X1:X3:N002 is floating.
WARNING: Node X1:X3:N003 is floating.
WARNING: Node X1:X3:N007 is floating.
WARNING: Node X1:X3:N010 is floating.
WARNING: Node X1:X3:N005 is floating.
WARNING: Node X1:X4:N004 is floating.
WARNING: Node X1:X4:N008 is floating.
WARNING: Node X1:X4:N011 is floating.
WARNING: Node X1:X4:N002 is floating.
WARNING: Node X1:X4:N003 is floating.
WARNING: Node X1:X4:N007 is floating.
WARNING: Node X1:X4:N010 is floating.
WARNING: Node X1:X4:N005 is floating.
WARNING: Node X1:X5:N002 is floating.
WARNING: Node X1:X5:N001 is floating.
WARNING: Node X1:X6:N002 is floating.
WARNING: Node X1:X6:N001 is floating.
WARNING: Node X2:N002 is floating.
WARNING: Node X2:N001 is floating.
WARNING: Node X3:N004 is floating.
WARNING: Node X3:N008 is floating.
WARNING: Node X3:N011 is floating.
WARNING: Node X3:N002 is floating.
WARNING: Node X3:N003 is floating.
WARNING: Node X3:N007 is floating.
WARNING: Node X3:N010 is floating.
WARNING: Node X3:N005 is floating.
WARNING: Node NC_01 is floating.

WARNING: Less than two connections to node X1:X1:N004.  This node is used by M:X1:X1:2.
WARNING: Less than two connections to node X1:X1:N008.  This node is used by M:X1:X1:3.
WARNING: Less than two connections to node X1:X1:N011.  This node is used by M:X1:X1:4.
WARNING: Less than two connections to node X1:X1:N002.  This node is used by M:X1:X1:1.
WARNING: Less than two connections to node X1:X1:N003.  This node is used by M:X1:X1:5.
WARNING: Less than two connections to node X1:X1:N007.  This node is used by M:X1:X1:6.
WARNING: Less than two connections to node X1:X1:N010.  This node is used by M:X1:X1:7.
WARNING: Less than two connections to node X1:X1:N005.  This node is used by M:X1:X1:8.
WARNING: Less than two connections to node X1:X2:N004.  This node is used by M:X1:X2:2.
WARNING: Less than two connections to node X1:X2:N008.  This node is used by M:X1:X2:3.
WARNING: Less than two connections to node X1:X2:N011.  This node is used by M:X1:X2:4.
WARNING: Less than two connections to node X1:X2:N002.  This node is used by M:X1:X2:1.
WARNING: Less than two connections to node X1:X2:N003.  This node is used by M:X1:X2:5.
WARNING: Less than two connections to node X1:X2:N007.  This node is used by M:X1:X2:6.
WARNING: Less than two connections to node X1:X2:N010.  This node is used by M:X1:X2:7.
WARNING: Less than two connections to node X1:X2:N005.  This node is used by M:X1:X2:8.
WARNING: Less than two connections to node X1:X3:N004.  This node is used by M:X1:X3:2.
WARNING: Less than two connections to node X1:X3:N008.  This node is used by M:X1:X3:3.
WARNING: Less than two connections to node X1:X3:N011.  This node is used by M:X1:X3:4.
WARNING: Less than two connections to node X1:X3:N002.  This node is used by M:X1:X3:1.
WARNING: Less than two connections to node X1:X3:N003.  This node is used by M:X1:X3:5.
WARNING: Less than two connections to node X1:X3:N007.  This node is used by M:X1:X3:6.
WARNING: Less than two connections to node X1:X3:N010.  This node is used by M:X1:X3:7.
WARNING: Less than two connections to node X1:X3:N005.  This node is used by M:X1:X3:8.
WARNING: Less than two connections to node X1:X4:N004.  This node is used by M:X1:X4:2.
WARNING: Less than two connections to node X1:X4:N008.  This node is used by M:X1:X4:3.
WARNING: Less than two connections to node X1:X4:N011.  This node is used by M:X1:X4:4.
WARNING: Less than two connections to node X1:X4:N002.  This node is used by M:X1:X4:1.
WARNING: Less than two connections to node X1:X4:N003.  This node is used by M:X1:X4:5.
WARNING: Less than two connections to node X1:X4:N007.  This node is used by M:X1:X4:6.
WARNING: Less than two connections to node X1:X4:N010.  This node is used by M:X1:X4:7.
WARNING: Less than two connections to node X1:X4:N005.  This node is used by M:X1:X4:8.
WARNING: Less than two connections to node X1:X5:N002.  This node is used by M:X1:X5:1.
WARNING: Less than two connections to node X1:X5:N001.  This node is used by M:X1:X5:2.
WARNING: Less than two connections to node X1:X6:N002.  This node is used by M:X1:X6:1.
WARNING: Less than two connections to node X1:X6:N001.  This node is used by M:X1:X6:2.
WARNING: Less than two connections to node X2:N002.  This node is used by M:X2:1.
WARNING: Less than two connections to node X2:N001.  This node is used by M:X2:2.
WARNING: Less than two connections to node X3:N004.  This node is used by M:X3:2.
WARNING: Less than two connections to node X3:N008.  This node is used by M:X3:3.
WARNING: Less than two connections to node X3:N011.  This node is used by M:X3:4.
WARNING: Less than two connections to node X3:N002.  This node is used by M:X3:1.
WARNING: Less than two connections to node X3:N003.  This node is used by M:X3:5.
WARNING: Less than two connections to node X3:N007.  This node is used by M:X3:6.
WARNING: Less than two connections to node X3:N010.  This node is used by M:X3:7.
WARNING: Less than two connections to node X3:N005.  This node is used by M:X3:8.
WARNING: Less than two connections to node NC_01.  This node is used by C5.
Direct Newton iteration failed to find .op point.  (Use ".option noopiter" to skip.)
Starting Gmin stepping
Gmin = 10
Gmin = 1.07374
Gmin = 0.115292
Gmin = 0.0123794
Gmin = 0.00132923
Gmin = 0.000142725
vernier = 0.5
Gmin = 2.39452e-005
vernier = 0.666667
Gmin = 6.14784e-006
vernier = 0.888888
vernier = 1
Gmin = 8.09366e-007
Gmin = 8.6905e-008
Gmin = 9.33136e-009
Gmin = 1.00195e-009
Gmin = 1.07583e-010
Gmin = 1.15517e-011
Gmin = 1.24035e-012
Gmin = 1.33182e-013
Gmin = 0
Gmin stepping succeeded in finding the operating point.


Date: Wed May 12 18:34:42 2021
Total elapsed time: 6.362 seconds.

tnom = 27
temp = 27
method = modified trap
totiter = 68328
traniter = 67474
tranpoints = 33389
accept = 33350
rejected = 39
matrix size = 262
fillins = 124
solver = Normal
Thread vector: 91.6/44.7[4] 14.4/10.2[4] 6.7/2.3[4] 2.2/7.2[1]  2592/500
Matrix Compiler1: 41.80 KB object code size  14.4/9.2/[3.6]
Matrix Compiler2: 34.64 KB object code size  7.4/8.2/[4.1]

